104741
  -OEChem-07232514293D

 88 91  0     1  0  0  0  0  0999 V2000
   -7.4439   -0.0369   -1.3479 S   0  0  2  0  0  0  0  0  0  0  0  0
  -12.7341   -0.9439   -0.5938 F   0  0  0  0  0  0  0  0  0  0  0  0
  -12.6977    1.2330   -0.7058 F   0  0  0  0  0  0  0  0  0  0  0  0
  -13.4187    1.3808    1.9591 F   0  0  0  0  0  0  0  0  0  0  0  0
  -13.4586   -0.7986    2.0666 F   0  0  0  0  0  0  0  0  0  0  0  0
  -14.8029    0.2517    0.7069 F   0  0  0  0  0  0  0  0  0  0  0  0
    8.6827    4.9673    0.7221 O   0  0  0  0  0  0  0  0  0  0  0  0
    7.2275   -5.8909    0.1171 O   0  0  0  0  0  0  0  0  0  0  0  0
   -7.5641   -1.4108   -1.9306 O   0  0  0  0  0  0  0  0  0  0  0  0
    6.6696    2.0281   -0.0591 C   0  0  2  0  0  0  0  0  0  0  0  0
    8.0076    2.6105    0.4434 C   0  0  2  0  0  0  0  0  0  0  0  0
    6.7771    0.5386   -0.3957 C   0  0  1  0  0  0  0  0  0  0  0  0
    7.1554   -0.2362    0.9040 C   0  0  2  0  0  0  0  0  0  0  0  0
    8.3865    1.8833    1.7395 C   0  0  0  0  0  0  0  0  0  0  0  0
    7.5840    4.0818    0.6237 C   0  0  2  0  0  0  0  0  0  0  0  0
    6.2402    3.0117   -1.1435 C   0  0  0  0  0  0  0  0  0  0  0  0
    5.5175   -0.0562   -1.0575 C   0  0  1  0  0  0  0  0  0  0  0  0
    8.4414    0.3552    1.5460 C   0  0  0  0  0  0  0  0  0  0  0  0
    6.7219    4.3767   -0.6190 C   0  0  0  0  0  0  0  0  0  0  0  0
    9.1838    2.5103   -0.5613 C   0  0  0  0  0  0  0  0  0  0  0  0
    7.1984   -1.7432    0.6671 C   0  0  0  0  0  0  0  0  0  0  0  0
    5.8307   -1.4982   -1.4856 C   0  0  0  0  0  0  0  0  0  0  0  0
    4.2485    0.0026   -0.1993 C   0  0  0  0  0  0  0  0  0  0  0  0
    6.5383   -2.3242   -0.4374 C   0  0  0  0  0  0  0  0  0  0  0  0
    2.9975   -0.0068   -1.0708 C   0  0  0  0  0  0  0  0  0  0  0  0
    7.8196   -2.5994    1.5945 C   0  0  0  0  0  0  0  0  0  0  0  0
    6.5688   -3.7188   -0.6167 C   0  0  0  0  0  0  0  0  0  0  0  0
    1.7358    0.0819   -0.2099 C   0  0  0  0  0  0  0  0  0  0  0  0
    7.8326   -3.9835    1.4102 C   0  0  0  0  0  0  0  0  0  0  0  0
    7.2124   -4.5434    0.3013 C   0  0  0  0  0  0  0  0  0  0  0  0
    0.4377   -0.0119   -1.0179 C   0  0  0  0  0  0  0  0  0  0  0  0
   -0.8589    0.0158   -0.2014 C   0  0  0  0  0  0  0  0  0  0  0  0
   -2.1190   -0.1037   -1.0621 C   0  0  0  0  0  0  0  0  0  0  0  0
   -3.4143   -0.0881   -0.2427 C   0  0  0  0  0  0  0  0  0  0  0  0
   -4.6779   -0.1242   -1.1103 C   0  0  0  0  0  0  0  0  0  0  0  0
   -5.9624   -0.0290   -0.2932 C   0  0  0  0  0  0  0  0  0  0  0  0
   -8.6259    0.0866    0.0147 C   0  0  0  0  0  0  0  0  0  0  0  0
  -10.0685    0.1102   -0.4787 C   0  0  0  0  0  0  0  0  0  0  0  0
  -11.0910    0.1856    0.6626 C   0  0  0  0  0  0  0  0  0  0  0  0
  -12.5211    0.1815    0.1342 C   0  0  0  0  0  0  0  0  0  0  0  0
  -13.5567    0.2546    1.2277 C   0  0  0  0  0  0  0  0  0  0  0  0
    5.9375    2.1319    0.7568 H   0  0  0  0  0  0  0  0  0  0  0  0
    7.5889    0.4062   -1.1239 H   0  0  0  0  0  0  0  0  0  0  0  0
    6.3477   -0.0829    1.6352 H   0  0  0  0  0  0  0  0  0  0  0  0
    9.3517    2.2417    2.1172 H   0  0  0  0  0  0  0  0  0  0  0  0
    7.6490    2.1052    2.5219 H   0  0  0  0  0  0  0  0  0  0  0  0
    6.9746    4.1992    1.5287 H   0  0  0  0  0  0  0  0  0  0  0  0
    5.1565    3.0044   -1.2980 H   0  0  0  0  0  0  0  0  0  0  0  0
    6.7139    2.7831   -2.1046 H   0  0  0  0  0  0  0  0  0  0  0  0
    5.3293    0.5149   -1.9768 H   0  0  0  0  0  0  0  0  0  0  0  0
    8.6101   -0.0853    2.5352 H   0  0  0  0  0  0  0  0  0  0  0  0
    9.3152    0.0847    0.9409 H   0  0  0  0  0  0  0  0  0  0  0  0
    7.2821    4.9149   -1.3919 H   0  0  0  0  0  0  0  0  0  0  0  0
    5.8713    5.0101   -0.3434 H   0  0  0  0  0  0  0  0  0  0  0  0
    9.4344    1.4784   -0.8200 H   0  0  0  0  0  0  0  0  0  0  0  0
   10.0911    2.9565   -0.1377 H   0  0  0  0  0  0  0  0  0  0  0  0
    8.9776    3.0331   -1.5005 H   0  0  0  0  0  0  0  0  0  0  0  0
    4.9151   -2.0102   -1.8027 H   0  0  0  0  0  0  0  0  0  0  0  0
    6.4900   -1.4638   -2.3638 H   0  0  0  0  0  0  0  0  0  0  0  0
    4.2256    0.9198    0.3968 H   0  0  0  0  0  0  0  0  0  0  0  0
    4.2148   -0.8306    0.5127 H   0  0  0  0  0  0  0  0  0  0  0  0
    8.3272    5.8720    0.7453 H   0  0  0  0  0  0  0  0  0  0  0  0
    2.9569   -0.9208   -1.6730 H   0  0  0  0  0  0  0  0  0  0  0  0
    3.0166    0.8396   -1.7680 H   0  0  0  0  0  0  0  0  0  0  0  0
    8.2990   -2.2069    2.4863 H   0  0  0  0  0  0  0  0  0  0  0  0
    6.0786   -4.1572   -1.4840 H   0  0  0  0  0  0  0  0  0  0  0  0
    1.7404    1.0245    0.3511 H   0  0  0  0  0  0  0  0  0  0  0  0
    1.7457   -0.7272    0.5311 H   0  0  0  0  0  0  0  0  0  0  0  0
    8.3270   -4.6170    2.1417 H   0  0  0  0  0  0  0  0  0  0  0  0
    0.4157    0.8121   -1.7425 H   0  0  0  0  0  0  0  0  0  0  0  0
    0.4582   -0.9388   -1.6054 H   0  0  0  0  0  0  0  0  0  0  0  0
   -0.8403   -0.8047    0.5263 H   0  0  0  0  0  0  0  0  0  0  0  0
   -0.8990    0.9487    0.3738 H   0  0  0  0  0  0  0  0  0  0  0  0
    6.7481   -6.1030   -0.7022 H   0  0  0  0  0  0  0  0  0  0  0  0
   -2.0748   -1.0317   -1.6453 H   0  0  0  0  0  0  0  0  0  0  0  0
   -2.1384    0.7231   -1.7827 H   0  0  0  0  0  0  0  0  0  0  0  0
   -3.4204   -0.9437    0.4436 H   0  0  0  0  0  0  0  0  0  0  0  0
   -3.4330    0.8168    0.3773 H   0  0  0  0  0  0  0  0  0  0  0  0
   -4.6814   -1.0488   -1.7012 H   0  0  0  0  0  0  0  0  0  0  0  0
   -4.6432    0.7036   -1.8303 H   0  0  0  0  0  0  0  0  0  0  0  0
   -6.0310   -0.8709    0.4037 H   0  0  0  0  0  0  0  0  0  0  0  0
   -5.9693    0.9011    0.2847 H   0  0  0  0  0  0  0  0  0  0  0  0
   -8.4091    1.0048    0.5705 H   0  0  0  0  0  0  0  0  0  0  0  0
   -8.4708   -0.7659    0.6844 H   0  0  0  0  0  0  0  0  0  0  0  0
  -10.2635   -0.7888   -1.0773 H   0  0  0  0  0  0  0  0  0  0  0  0
  -10.2098    0.9662   -1.1510 H   0  0  0  0  0  0  0  0  0  0  0  0
  -10.9424   -0.6712    1.3302 H   0  0  0  0  0  0  0  0  0  0  0  0
  -10.9117    1.0998    1.2403 H   0  0  0  0  0  0  0  0  0  0  0  0
  1  9  2  0  0  0  0
  1 36  1  0  0  0  0
  1 37  1  0  0  0  0
  2 40  1  0  0  0  0
  3 40  1  0  0  0  0
  4 41  1  0  0  0  0
  5 41  1  0  0  0  0
  6 41  1  0  0  0  0
  7 15  1  0  0  0  0
  7 62  1  0  0  0  0
  8 30  1  0  0  0  0
  8 74  1  0  0  0  0
 10 11  1  0  0  0  0
 10 12  1  0  0  0  0
 10 16  1  0  0  0  0
 10 42  1  0  0  0  0
 11 14  1  0  0  0  0
 11 15  1  0  0  0  0
 11 20  1  0  0  0  0
 12 13  1  0  0  0  0
 12 17  1  0  0  0  0
 12 43  1  0  0  0  0
 13 18  1  0  0  0  0
 13 21  1  0  0  0  0
 13 44  1  0  0  0  0
 14 18  1  0  0  0  0
 14 45  1  0  0  0  0
 14 46  1  0  0  0  0
 15 19  1  0  0  0  0
 15 47  1  0  0  0  0
 16 19  1  0  0  0  0
 16 48  1  0  0  0  0
 16 49  1  0  0  0  0
 17 22  1  0  0  0  0
 17 23  1  0  0  0  0
 17 50  1  0  0  0  0
 18 51  1  0  0  0  0
 18 52  1  0  0  0  0
 19 53  1  0  0  0  0
 19 54  1  0  0  0  0
 20 55  1  0  0  0  0
 20 56  1  0  0  0  0
 20 57  1  0  0  0  0
 21 24  2  0  0  0  0
 21 26  1  0  0  0  0
 22 24  1  0  0  0  0
 22 58  1  0  0  0  0
 22 59  1  0  0  0  0
 23 25  1  0  0  0  0
 23 60  1  0  0  0  0
 23 61  1  0  0  0  0
 24 27  1  0  0  0  0
 25 28  1  0  0  0  0
 25 63  1  0  0  0  0
 25 64  1  0  0  0  0
 26 29  2  0  0  0  0
 26 65  1  0  0  0  0
 27 30  2  0  0  0  0
 27 66  1  0  0  0  0
 28 31  1  0  0  0  0
 28 67  1  0  0  0  0
 28 68  1  0  0  0  0
 29 30  1  0  0  0  0
 29 69  1  0  0  0  0
 31 32  1  0  0  0  0
 31 70  1  0  0  0  0
 31 71  1  0  0  0  0
 32 33  1  0  0  0  0
 32 72  1  0  0  0  0
 32 73  1  0  0  0  0
 33 34  1  0  0  0  0
 33 75  1  0  0  0  0
 33 76  1  0  0  0  0
 34 35  1  0  0  0  0
 34 77  1  0  0  0  0
 34 78  1  0  0  0  0
 35 36  1  0  0  0  0
 35 79  1  0  0  0  0
 35 80  1  0  0  0  0
 36 81  1  0  0  0  0
 36 82  1  0  0  0  0
 37 38  1  0  0  0  0
 37 83  1  0  0  0  0
 37 84  1  0  0  0  0
 38 39  1  0  0  0  0
 38 85  1  0  0  0  0
 38 86  1  0  0  0  0
 39 40  1  0  0  0  0
 39 87  1  0  0  0  0
 39 88  1  0  0  0  0
 40 41  1  0  0  0  0
M  END
> <PUBCHEM_COMPOUND_CID>
104741

> <PUBCHEM_CONFORMER_RMSD>
1.6

> <PUBCHEM_CONFORMER_DIVERSEORDER>
1
2
93
128
117
84
9
41
29
88
7
163
79
48
173
81
59
45
156
132
65
73
140
172
124
165
61
72
20
4
135
57
168
28
112
138
96
46
67
25
157
43
133
64
174
3
18
100
129
97
50
6
159
77
34
106
32
55
144
12
167
87
51
69
143
99
21
145
125
95
118
123
120
146
134
58
5
170
164
136
98
153
121
11
39
63
92
52
169
110
113
44
62
86
155
105
42
75
27
114
71
147
139
171
31
158
161
104
24
35
33
36
131
151
30
78
137
53
16
150
54
152
130
40
115
126
107
148
127
10
70
149
103
13
8
82
76
94
90
116
162
111
166
85
122
154
56
108
47
26
37
17
80
22
83
142
49
102
38
141
15
68
119
74
101
14
175
160
60
23
66
109
19
89
91

> <PUBCHEM_MMFF94_PARTIAL_CHARGES>
27
1 0.11
13 0.14
15 0.28
2 -0.34
21 -0.14
22 0.14
24 -0.14
26 -0.15
27 -0.15
29 -0.15
3 -0.34
30 0.08
36 0.19
37 0.19
4 -0.34
40 0.68
41 1.02
5 -0.34
6 -0.34
62 0.4
65 0.15
66 0.15
69 0.15
7 -0.68
74 0.45
8 -0.53
9 -0.5

> <PUBCHEM_EFFECTIVE_ROTOR_COUNT>
16.4

> <PUBCHEM_PHARMACOPHORE_FEATURES>
8
1 7 acceptor
1 7 donor
1 8 donor
1 9 acceptor
5 10 11 15 16 19 rings
6 10 11 12 13 14 18 rings
6 12 13 17 21 22 24 rings
6 21 24 26 27 29 30 rings

> <PUBCHEM_HEAVY_ATOM_COUNT>
41

> <PUBCHEM_ATOM_DEF_STEREO_COUNT>
6

> <PUBCHEM_ATOM_UDEF_STEREO_COUNT>
1

> <PUBCHEM_BOND_DEF_STEREO_COUNT>
0

> <PUBCHEM_BOND_UDEF_STEREO_COUNT>
0

> <PUBCHEM_ISOTOPIC_ATOM_COUNT>
0

> <PUBCHEM_COMPONENT_COUNT>
1

> <PUBCHEM_CACTVS_TAUTO_COUNT>
9

> <PUBCHEM_CONFORMER_ID>
0001992500000001

> <PUBCHEM_MMFF94_ENERGY>
83.4397

> <PUBCHEM_FEATURE_SELFOVERLAP>
40.694

> <PUBCHEM_SHAPE_FINGERPRINT>
10533779 47 18040998432221733021
11966995 178 17458339724061081872
12089408 11 18202559593208431367
15061470 23 18131635574748594169
15065858 18 18186236222376417141
15554971 5 17846212241852450781
15779827 34 17676204671824248909
16728433 110 18408884041061340973
20587220 46 13695854919606553024
21102433 48 12685084909351561705
21362267 20 18408886270604165259
21362267 313 18272371919576634359
22164985 6 18334571357111824783
232437 2 11818989691709651453
9937071 3 18040719160753532403

> <PUBCHEM_SHAPE_MULTIPOLES>
793.63
64.54
5.3
1.54
322
2.22
0.33
-9.3
25.29
-30.13
0.88
1.01
0.13
-1.36

> <PUBCHEM_SHAPE_SELFOVERLAP>
1627.749

> <PUBCHEM_SHAPE_VOLUME>
461

> <PUBCHEM_COORDINATE_TYPE>
2
5
10

$$$$
